Mass Spectrum: Diphenyl ether
Formula: C12 H10 O
CAS: 101-84-8
Molecular weight: 170
m/z	RELATIVE INTENSITY
14	20
15	50
16	10
17	10
18	30
25	30
26	220
27	811
28	120
29	60
31	20
32	10
33	20
36	20
37	290
38	931
39	3163
40	250
41	80
42	30
43	40
44	30
49	110
50	1541
51	5215
52	300
53	110
54	20
55	190
56	30
57	50
58	130
61	100
62	290
63	821
64	320
65	1121
66	290
67	30
68	140
69	120
70	440
71	520
72	70
73	70
74	370
75	280
76	270
77	4564
78	340
79	30
83	20
84	120
85	330
87	30
88	30
89	120
90	30
91	120
92	60
93	60
94	500
95	40
98	10
99	10
101	10
102	120
103	30
104	10
105	20
106	10
110	10
111	10
113	40
114	80
115	1241
116	230
117	30
119	80
126	20
127	30
128	50
129	40
130	10
131	20
138	20
139	260
140	390
141	3984
142	1872
143	200
144	50
151	10
152	20
153	30
154	10
155	40
168	340
169	1491
170	9999
171	1311
172	100
