Mass Spectrum: Propene, hexafluoro-
Formula: C3 F6
CAS: 116-15-4
Molecular weight: 150
m/z	RELATIVE INTENSITY
12	30
19	10
24	51
31	4898
36	10
43	40
50	608
51	10
55	91
56	20
62	344
63	10
65	283
67	20
69	9798
70	111
74	172
81	1538
82	40
85	51
87	10
93	506
94	10
100	5739
101	263
103	81
105	10
112	131
116	10
117	10
118	10
119	10
129	20
131	9999
132	354
150	5304
151	263
152	10
