Mass Spectrum: Nonanedioic acid, dimethyl ester
Formula: C11 H20 O4
CAS: 1732-10-1
Molecular weight: 216
Origin: NIST Mass Spectrometry Data Center
m/z	RELATIVE INTENSITY
14	10
15	611
16	10
26	60
27	681
28	410
29	1081
30	70
31	230
32	10
33	50
37	10
38	30
39	1131
40	270
41	3563
42	1551
43	3363
44	200
45	671
46	30
47	40
48	60
49	70
50	30
51	80
52	50
53	571
54	430
55	9198
56	821
57	691
58	120
59	5525
60	180
61	50
62	10
63	330
65	120
66	80
67	1041
68	851
69	3673
70	430
71	280
72	90
73	811
74	8117
75	460
76	40
77	240
78	40
79	500
80	490
81	1161
82	1121
83	6986
84	3153
85	370
87	3353
88	490
89	40
91	90
92	110
93	330
94	50
95	571
96	1421
97	3373
98	2172
99	290
100	180
101	1201
102	100
103	10
105	70
106	130
107	540
108	120
109	250
110	921
111	6346
112	520
113	450
114	250
115	370
116	100
117	30
121	10
122	20
123	320
124	3103
125	2282
126	210
127	200
128	751
129	170
130	540
131	50
132	10
133	50
134	220
135	360
136	40
137	470
138	50
139	10
140	180
141	290
142	340
143	4844
144	420
145	30
148	20
150	20
151	210
152	9999
153	1361
154	140
155	30
156	621
157	110
158	40
159	10
160	40
166	20
167	10
173	10
174	10
184	370
185	4244
186	480
187	60
188	10
217	10
