Mass Spectrum: Cholesterol, TMS derivative
Formula: C30 H54 O Si
CAS: 1856-05-9
Molecular weight: 458
Origin: NIST Mass Spectrometry Data Center
m/z	RELATIVE INTENSITY
15	20
16	30
27	210
29	500
30	30
36	20
38	20
39	220
40	40
41	2092
42	260
43	4254
44	160
45	410
46	40
47	200
49	10
50	20
51	30
52	30
53	320
54	40
55	3493
56	621
57	4114
58	220
59	290
60	60
61	310
62	30
63	30
65	130
66	50
67	1641
68	250
69	2072
70	320
71	1882
72	160
73	5755
74	561
75	4174
76	300
77	591
78	130
79	1692
80	220
81	3173
82	360
83	1421
84	130
85	430
86	50
87	60
88	20
89	190
91	2172
92	470
93	2242
94	510
95	3994
96	310
97	931
98	70
99	190
100	20
101	310
102	20
103	260
104	130
105	2712
106	731
107	2843
108	611
109	1912
110	270
111	681
112	60
113	150
114	20
115	470
116	360
117	1011
118	460
119	2913
120	1501
121	2813
122	450
123	831
124	100
125	270
126	40
127	210
128	300
129	9999
130	1702
131	2052
132	611
133	1782
134	520
135	1371
136	210
137	440
138	60
139	150
140	10
141	220
142	220
143	1431
144	540
145	2783
146	821
147	1561
148	480
149	881
150	140
151	320
152	60
153	100
154	60
155	631
156	170
157	711
158	450
159	1832
160	1131
161	1521
162	320
163	881
164	150
165	290
166	60
167	100
168	90
169	290
170	90
171	470
172	200
173	801
174	330
175	601
176	100
177	430
178	90
179	230
180	70
181	240
182	150
183	170
184	70
185	430
186	160
187	390
188	140
189	450
190	120
191	200
192	70
193	250
194	80
195	110
196	170
197	270
198	80
199	470
200	140
201	410
202	110
203	631
204	110
205	280
206	180
207	230
208	60
209	60
210	20
211	80
212	50
213	881
214	270
215	490
216	120
217	520
218	100
219	430
220	100
221	90
222	20
223	20
224	20
225	40
226	30
227	230
228	190
229	250
230	60
231	120
232	40
233	420
234	80
235	60
236	10
239	80
240	30
241	160
242	50
243	50
245	210
246	180
247	1331
248	240
249	50
250	40
251	30
252	10
253	70
254	50
255	1191
256	280
257	90
258	30
259	260
260	170
261	90
262	20
267	10
269	40
270	10
271	50
272	20
273	130
274	170
275	561
276	120
277	20
283	90
284	50
285	30
286	40
287	60
288	30
289	50
290	10
291	30
297	50
298	20
299	80
300	70
301	320
302	90
303	50
304	20
305	10
311	110
312	10
313	90
314	100
315	60
316	20
317	30
318	20
324	10
325	60
326	250
327	360
328	1361
329	5685
330	1491
331	220
332	20
337	10
339	60
340	180
341	50
342	50
343	30
344	10
345	50
346	10
348	10
351	20
353	2222
354	711
355	70
356	20
358	10
359	10
360	10
361	10
364	10
366	20
367	180
368	4344
369	1321
370	180
371	50
372	20
373	10
384	10
386	10
387	20
388	20
401	20
402	10
403	10
416	40
417	20
425	20
429	40
430	30
431	20
441	20
442	10
443	611
444	250
445	60
446	10
456	50
457	30
458	1641
459	681
460	170
461	30
