Mass Spectrum: 2,5-Furandicarboxylic acid
Formula: C6 H4 O5
CAS: 3238-40-2
Molecular weight: 156
Origin: W.T.RAINEY OAK RIDGE NATIONAL LABORATORY,OAK RIDGE,TN.USA
m/z	RELATIVE INTENSITY
39	3489
45	1655
53	616
54	454
55	1152
66	486
67	324
82	214
83	155
84	87
95	1753
111	616
112	87
128	844
139	6898
140	519
156	9999
157	714
