Mass Spectrum: Retinoic acid, methyl ester
Formula: C21 H30 O2
CAS: 339-16-2
Molecular weight: 314
Origin: M.G.HORNING,INST.FOR LIPID RES,BAYLOR COLL.OF MED,HOUSTON,TEX
m/z	RELATIVE INTENSITY
40	170
41	3293
42	140
43	1221
44	130
45	130
51	300
52	130
53	1021
54	130
55	2612
56	240
57	470
59	1161
63	120
64	100
65	810
66	270
67	1101
68	130
69	3263
70	290
71	290
73	140
75	120
76	120
77	1891
78	640
79	2052
80	489
81	1751
82	270
83	850
84	190
85	420
89	190
91	3593
92	730
93	1881
94	480
95	1931
96	240
97	340
98	130
99	240
101	200
102	150
103	540
104	390
105	3793
106	950
107	2612
108	489
109	1031
110	190
111	560
112	330
113	270
114	180
115	1441
116	660
117	1191
118	670
119	3283
120	1041
121	1760
122	670
123	1181
124	219
125	2052
126	340
127	800
128	1541
129	1551
130	829
131	2052
132	750
133	2332
134	850
135	1401
136	310
137	660
138	200
139	410
141	1101
142	1311
143	1960
144	870
145	2312
146	1041
147	1071
148	310
149	600
150	310
151	190
152	330
153	560
154	500
155	1051
156	879
157	2352
158	870
159	2752
160	710
161	1641
162	330
163	430
164	260
165	1381
166	410
167	500
168	370
169	1341
170	920
171	2342
172	660
173	1841
174	410
175	1561
176	700
177	3043
178	2642
179	570
180	219
181	340
182	310
183	1221
184	640
185	2872
186	879
187	560
188	240
189	250
190	700
191	610
192	140
193	240
194	130
195	380
196	290
197	1391
198	540
199	1441
200	410
201	1051
202	360
203	410
204	140
205	170
207	130
209	290
210	219
211	1171
212	340
213	710
214	219
215	260
216	120
217	360
218	170
223	170
224	170
225	730
226	190
227	170
228	100
229	700
230	190
231	480
232	330
233	100
239	1161
240	330
241	190
242	100
243	480
244	390
245	460
254	410
255	3272
256	740
257	360
258	219
259	109
267	970
268	219
271	300
282	160
283	320
299	1541
300	360
314	9999
315	2232
316	360
317	140
