Mass Spectrum: 1,1,3,3,3-Pentafluoro-2-(trifluoromethyl)-1-propene
Formula: C4 F8
CAS: 382-21-8
Molecular weight: 200
Origin: Eric Wils, TNO Prins Maurits Laboratory, The Netherlands.
m/z	RELATIVE INTENSITY
31	1281
50	270
62	130
69	9188
70	90
74	380
81	270
93	3223
94	90
100	671
112	1281
131	1091
150	831
181	9999
182	410
200	3163
201	120
