Mass Spectrum: VX
Formula: C11 H26 N O2 P S
CAS: 50782-69-9
Molecular weight: 267
Origin: VERIFIN - Methodology B1-1979
m/z	RELATIVE INTENSITY
27	100
28	80
30	800
41	300
42	300
43	700
44	400
47	60
56	200
57	50
58	80
61	100
70	900
71	100
72	2101
73	60
79	800
84	600
85	300
86	200
95	50
107	500
112	500
114	9999
115	800
127	1301
128	400
139	300
144	60
167	500
180	50
224	50
252	200
