Mass Spectrum: 1-Nonadecanethiol
Formula: C19 H40 S
CAS: 53193-23-0
Molecular weight: 300
Origin: MUS277 A. Mujsce, AT&T Bell Labs., Murray Hill, N.J., USA
m/z	RELATIVE INTENSITY
27	272
28	201
29	844
30	85
31	134
32	207
37	73
38	409
39	664
41	3286
42	549
43	3360
46	160
47	648
48	117
50	103
51	270
53	394
54	482
55	5113
56	1533
57	4468
58	207
60	285
61	728
63	182
65	266
67	1157
68	1399
69	5073
70	1870
71	2408
74	92
75	239
77	38
79	275
80	108
81	898
82	1858
83	5974
84	1607
85	1563
86	142
87	350
88	324
89	1535
94	136
95	463
96	2362
97	6322
98	1403
99	711
101	225
102	179
103	72
107	110
108	142
109	271
110	955
111	5182
112	1224
113	625
115	134
116	140
117	130
119	72
120	91
122	160
123	197
124	1213
125	3766
126	915
127	457
128	446
130	43
131	217
132	159
133	50
135	140
136	84
137	263
138	1184
139	2038
140	889
141	190
143	106
146	103
147	69
148	81
149	50
150	68
151	201
152	758
153	1763
154	1179
155	154
157	215
165	134
166	642
167	888
168	987
169	247
170	43
171	183
172	56
173	217
174	107
175	72
176	64
179	69
180	468
181	875
182	1046
183	251
185	61
189	65
191	159
194	565
195	462
196	759
197	346
198	92
199	107
208	522
209	577
210	732
211	343
213	87
215	95
216	53
222	260
223	477
224	99
225	138
229	191
230	68
231	89
232	92
236	187
237	638
238	2748
239	542
240	85
241	62
244	43
245	47
247	61
255	141
261	60
265	114
266	9999
267	2351
268	379
271	233
272	89
282	98
285	91
288	62
290	34
293	68
299	2317
300	6434
301	1373
302	514
