Mass Spectrum: Niacin
Formula: C6 H5 N O2
CAS: 59-67-6
Molecular weight: 123
Origin: Japan AIST/NIMC Database- Spectrum MS-NW-5913
m/z	RELATIVE INTENSITY
12	10
17	10
18	50
24	10
25	60
26	289
27	189
28	269
29	60
36	30
37	179
38	269
39	549
40	99
41	60
42	40
44	50
45	369
48	50
49	339
50	1579
51	2829
52	1039
53	339
54	20
55	20
61	10
62	20
63	10
64	10
65	10
66	90
67	80
68	60
70	10
74	20
75	159
76	249
77	2019
78	4189
79	329
80	10
89	10
94	109
95	60
104	20
105	4589
106	2539
107	179
108	10
122	20
123	9999
124	739
125	60
