Mass Spectrum: Cholecalciferol
Formula: C27 H44 O
CAS: 67-97-0
Molecular weight: 384
Origin: NIST Mass Spectrometry Data Center
m/z	RELATIVE INTENSITY
26	20
27	260
29	791
30	20
31	40
36	10
38	10
39	300
40	70
41	3033
42	380
43	5425
44	190
45	40
50	10
51	50
52	20
53	450
54	50
55	3403
56	280
57	2903
58	150
59	90
62	10
63	20
64	20
65	180
66	60
67	1031
68	120
69	1672
70	150
71	1001
72	60
75	40
77	520
78	140
79	1031
80	170
81	2092
82	290
83	1111
84	110
85	180
86	40
89	30
91	1712
92	240
93	871
94	170
95	1491
96	180
97	741
98	80
99	50
100	10
101	20
102	30
103	210
104	110
105	1611
106	260
107	801
108	140
109	821
110	150
111	290
112	40
113	30
114	10
115	761
116	350
117	1031
118	861
119	1952
120	260
121	370
122	160
123	340
124	50
125	80
127	310
128	1521
129	1521
130	500
131	1451
132	390
133	601
134	200
135	230
136	90
137	180
138	30
139	40
140	20
141	1121
142	921
143	4764
144	1221
145	4384
146	661
147	400
148	60
149	110
150	60
151	100
152	130
153	340
154	300
155	1061
156	661
157	2562
158	1692
159	1992
160	460
161	380
162	100
163	110
164	200
165	340
166	160
167	380
168	270
169	1081
170	671
171	1802
172	530
173	500
174	120
175	400
176	240
177	300
178	150
179	170
180	110
181	460
182	280
183	1181
184	410
185	1161
186	450
187	220
188	210
189	110
190	30
191	80
192	50
193	180
194	80
195	340
196	270
197	1321
198	450
199	1031
200	200
201	140
202	50
203	40
204	20
205	40
206	60
207	80
208	40
209	180
210	130
211	1471
212	380
213	440
214	120
215	100
216	50
217	270
218	50
219	60
220	40
221	40
222	40
223	140
224	110
225	310
226	300
227	270
228	70
229	210
230	170
231	80
232	20
233	10
235	10
236	10
237	190
238	110
239	240
240	40
241	50
242	20
243	50
244	40
245	80
246	30
247	10
250	10
251	90
252	40
253	681
254	150
255	70
256	40
257	40
258	10
259	20
265	60
266	20
267	30
268	20
269	30
270	10
271	280
272	70
273	20
274	10
279	30
281	60
282	20
283	20
284	10
285	20
287	10
288	10
289	10
293	30
294	20
295	40
297	20
298	10
299	50
300	20
301	20
307	10
308	20
309	90
310	30
311	180
312	110
313	40
314	10
315	10
319	10
322	10
323	30
325	4664
326	1241
327	210
328	30
335	10
336	10
337	40
338	40
339	10
340	20
341	10
342	10
343	10
344	10
346	10
349	40
351	9999
352	2803
353	400
354	40
355	10
364	10
365	30
366	380
367	140
368	50
369	250
370	80
371	10
382	50
384	2622
385	811
386	130
387	10
