Mass Spectrum: Pyridine, pentafluoro-
Formula: C5 F5 N
CAS: 700-16-3
Molecular weight: 169
Origin: Japan AIST/NIMC Database- Spectrum MS-NW-3435
m/z	RELATIVE INTENSITY
24	40
26	20
31	3699
32	30
36	159
38	90
43	50
44	50
45	20
48	40
50	90
55	709
56	20
57	50
62	389
67	30
69	999
70	10
74	1159
75	40
76	90
81	289
82	10
84	80
86	259
87	10
88	40
93	2059
94	80
95	10
100	3409
101	169
105	449
106	20
107	30
112	30
114	10
119	259
120	10
124	2909
125	139
131	60
138	1369
139	70
150	1349
151	90
169	9999
170	599
171	10
