Mass Spectrum: Phosgene
Formula: C Cl2 O
CAS: 75-44-5
Molecular weight: 98
Origin: DOW CHEMICAL COMPANY / ASTM E14-UNCERTIFIED SPECTRUM 42
m/z	RELATIVE INTENSITY
28	657
29	13
30	7
35	2089
36	269
37	686
38	71
47	275
48	2
49	94
50	2
63	9999
64	129
65	3358
66	41
70	410
72	270
74	44
82	75
83	4
84	54
86	7
98	679
99	7
100	440
101	6
102	71
