Mass Spectrum: Menazon
Formula: C6 H12 N5 O2 P S2
CAS: 78-57-9
Molecular weight: 281
Origin: J. SHAW, BORRISTON RESEARCH, ROCKVILLE, MD, USA
m/z	RELATIVE INTENSITY
26	30
27	160
28	560
29	350
30	280
31	230
32	80
33	30
34	10
35	10
36	20
38	20
39	60
40	180
41	450
42	580
43	2472
44	100
45	400
46	170
47	780
48	60
49	30
50	10
51	30
52	10
53	80
55	690
56	60
57	120
58	60
59	10
60	20
61	20
62	210
63	780
64	150
65	40
66	30
67	60
68	470
69	120
70	40
71	70
72	180
73	40
74	60
75	10
76	10
77	70
79	630
80	40
81	30
82	300
83	80
84	20
85	80
86	20
87	200
89	210
90	10
91	20
93	2002
94	90
95	140
96	90
97	60
98	40
99	10
102	10
103	30
104	10
105	10
107	20
108	10
109	50
110	100
111	230
112	60
114	500
115	70
116	30
117	20
118	10
119	20
121	10
122	20
123	30
125	2392
126	140
127	130
128	30
129	20
133	10
134	20
135	80
136	10
139	60
140	30
141	50
142	90
143	30
144	70
145	20
146	10
147	10
149	50
150	30
151	20
153	10
154	40
156	9999
157	1241
158	510
159	70
160	20
161	10
162	10
164	10
166	40
167	20
169	120
170	20
171	40
172	10
175	10
176	10
177	10
183	10
185	30
186	40
187	30
188	30
189	10
192	10
196	40
197	10
202	20
206	10
208	10
211	60
214	20
215	10
216	20
217	10
218	30
234	150
235	20
236	10
238	40
248	10
250	100
251	10
281	1911
282	200
283	170
