Mass Spectrum: Riboflavine
Formula: C17 H20 N4 O6
CAS: 83-88-5
Molecular weight: 376
Origin: Finnigan MAT: Toxicological Library (LIBR-TX)
m/z	RELATIVE INTENSITY
43	6253
44	2652
60	3126
61	2345
74	1064
77	1067
91	942
102	554
103	977
116	1155
117	435
130	687
131	550
143	395
144	353
156	3155
157	1032
170	2322
171	4450
172	1184
184	728
185	1161
198	1143
199	814
213	3090
214	712
227	317
228	223
242	9999
243	7961
244	1181
256	7294
257	1390
269	93
270	209
285	1332
286	275
299	54
301	96
315	682
316	105
329	65
333	75
341	98
345	326
358	183
360	218
376	431
377	76
