Mass Spectrum: Diethyl Phthalate
Formula: C12 H14 O4
CAS: 84-66-2
Molecular weight: 222
Origin: NIST Mass Spectrometry Data Center
m/z	RELATIVE INTENSITY
15	10
26	20
27	200
29	350
30	20
31	10
38	10
39	140
43	50
44	10
45	50
49	10
50	440
51	200
52	50
53	40
62	10
63	40
64	40
65	841
66	170
73	10
74	150
75	180
76	931
77	420
78	50
79	10
91	70
92	50
93	721
94	50
103	40
104	751
105	1001
106	180
107	20
119	10
120	10
121	691
122	390
123	30
131	20
132	190
133	60
135	70
136	10
147	20
149	9999
150	1351
151	140
152	10
164	40
165	10
166	10
175	10
176	991
177	2442
178	490
179	50
194	30
195	20
221	40
222	200
223	20
