Mass Spectrum: Dibutyl phthalate
Formula: C16 H22 O4
CAS: 84-74-2
Molecular weight: 278
Origin: NIST Mass Spectrometry Data Center, 1990.
m/z	RELATIVE INTENSITY
26	23
27	167
28	200
29	396
31	27
32	48
39	206
41	671
42	46
43	81
50	200
51	78
52	22
53	35
54	24
55	145
56	351
57	330
65	382
66	39
73	25
74	53
75	94
76	644
77	168
93	360
94	31
104	587
105	299
106	41
121	308
122	189
123	102
132	57
135	52
149	9999
150	884
151	94
160	64
167	39
205	401
206	65
223	470
224	61
278	53
