Mass Spectrum: Tetraphenylporphyrin
Formula: C44 H30 N4
CAS: 917-23-7
Molecular weight: 614
Origin: Japan AIST/NIMC Database- Spectrum MS-NW-9074
m/z	RELATIVE INTENSITY
27	10
39	10
44	20
51	10
63	10
77	60
78	10
89	10
91	30
101	10
102	10
103	20
104	10
114	10
115	50
116	10
126	20
127	70
128	50
129	10
130	10
139	30
140	30
141	10
150	10
151	30
152	40
153	30
154	90
155	20
156	30
157	10
163	20
164	30
165	40
166	30
167	30
168	20
169	10
175	10
176	20
177	30
178	40
179	20
180	30
181	10
182	10
183	10
184	10
188	20
189	30
190	40
191	40
192	30
193	30
194	20
195	20
196	20
197	10
199	10
200	10
201	30
202	50
203	40
204	50
205	20
206	20
207	20
208	20
209	20
210	10
213	20
214	40
215	70
216	60
217	40
218	20
219	40
220	30
221	30
222	20
225	10
226	40
227	50
228	60
229	90
230	60
231	30
232	20
233	30
234	40
235	30
236	10
237	10
238	20
239	60
240	80
241	99
242	60
243	60
244	30
245	40
246	50
247	40
248	40
249	20
250	20
251	30
252	70
253	99
254	129
255	70
256	40
257	20
258	40
259	70
260	70
261	30
262	10
263	20
264	40
265	60
266	109
267	179
268	249
269	99
270	30
271	20
272	40
273	50
274	20
275	10
276	30
277	60
278	109
279	80
280	119
281	60
282	40
283	30
284	40
285	30
286	10
287	10
288	10
289	30
290	70
291	109
292	109
293	109
294	60
295	40
296	10
297	40
298	109
299	10
301	20
302	30
303	60
304	99
305	179
306	229
307	1979
310	10
313	10
314	20
315	30
316	50
317	70
318	70
319	80
320	30
321	20
326	10
327	20
328	30
329	60
330	60
331	60
332	50
333	30
334	20
335	10
337	10
338	10
339	10
340	20
341	40
342	50
343	99
344	70
345	70
346	30
347	10
352	10
353	30
354	40
355	50
356	60
357	40
358	20
364	10
365	20
366	20
367	40
368	40
369	40
370	50
371	30
372	20
376	10
377	10
378	20
379	30
380	40
381	40
382	40
383	30
384	20
389	10
390	20
391	30
392	40
393	60
394	50
395	60
396	30
397	20
398	10
401	10
402	10
403	20
404	30
405	40
406	40
407	40
408	20
409	10
414	10
415	10
416	20
417	40
418	50
419	70
420	60
421	40
422	20
427	10
428	20
429	30
430	50
431	70
432	80
433	70
434	40
435	20
440	10
441	20
442	30
443	40
444	50
445	50
446	40
447	20
453	10
454	20
455	30
456	40
457	60
458	99
459	109
460	159
461	60
462	20
465	10
466	10
467	20
468	30
469	40
470	50
471	30
472	20
473	10
478	10
479	10
480	20
481	30
482	30
483	30
484	30
485	10
486	10
491	10
492	10
493	20
494	40
495	30
496	40
497	30
498	20
499	10
504	10
505	10
506	30
507	30
508	60
509	50
510	50
511	30
512	10
517	10
518	20
519	40
520	40
521	60
522	40
523	30
524	10
526	10
531	10
532	10
533	30
534	50
535	139
536	289
537	519
538	209
539	90
540	30
541	10
546	10
547	10
552	10
553	10
569	10
572	10
582	10
584	20
586	40
587	20
595	20
596	10
597	50
598	30
599	20
614	9999
615	4839
616	1229
617	199
