Mass Spectrum: Benzamide, N-(1-naphthyl)-4-methoxy-
Formula: C18 H15 N O2
Molecular weight: 277
Origin: Zaikin V.G., TIPS RAS, Moscow, Russia
m/z	RELATIVE INTENSITY
28	20
39	50
50	40
51	40
63	140
64	210
65	60
75	40
76	100
77	991
78	80
79	60
88	30
89	70
92	731
93	60
104	60
107	581
108	60
113	40
114	70
115	591
116	100
127	30
135	9999
136	801
137	60
140	80
141	40
142	60
143	230
144	60
204	30
277	2522
278	510
279	50
