Mass Spectrum: Sarcosine, n-pentafluoropropionyl-, propyl ester
Formula: C9 H12 F5 N O3
Molecular weight: 277
Origin: Zaikin V.G., TIPS RAS, Moscow, Russia
m/z	RELATIVE INTENSITY
27	120
39	50
41	240
42	450
43	530
60	60
61	70
69	150
72	190
78	30
88	160
102	140
110	50
112	290
116	50
119	1441
130	110
147	300
160	80
162	70
168	40
176	140
188	130
189	40
190	9999
191	1611
192	80
216	180
217	150
218	420
235	50
236	170
277	611
278	50
