Mass Spectrum: Lactic acid, 2TBDMS derivative
Formula: C15 H34 O3 Si2
Molecular weight: 318
Origin: John Halket,Royal Holloway, University of London, UK
m/z	RELATIVE INTENSITY
15	10
26	10
27	80
28	30
29	400
30	10
31	50
39	140
41	681
42	60
43	390
44	80
45	701
46	50
47	250
48	10
49	10
51	10
52	40
53	40
55	320
56	250
57	921
58	561
59	1171
60	150
61	220
62	20
63	10
66	310
68	10
69	50
70	40
71	90
73	7587
74	811
75	1852
76	130
77	80
81	10
83	50
84	20
85	210
86	140
87	240
88	290
89	70
94	20
95	10
97	30
99	160
100	70
101	210
102	210
103	581
104	70
105	70
106	10
107	10
113	30
115	971
116	150
117	831
118	130
119	290
120	30
121	20
127	10
129	170
130	100
131	380
133	2923
134	430
135	260
136	20
137	10
143	50
144	10
145	40
147	9999
148	2012
149	1491
150	170
151	70
152	10
157	40
159	1301
160	200
161	100
162	20
163	10
171	10
172	10
173	50
174	10
175	90
176	30
177	50
178	10
185	10
187	10
189	5215
190	1051
191	490
192	60
193	10
203	90
204	40
205	220
206	40
207	20
215	10
217	10
219	20
231	370
233	4164
234	931
235	390
236	60
237	10
245	130
246	30
247	80
248	20
249	10
259	10
261	6576
262	1611
263	691
264	100
265	20
275	70
276	20
277	10
303	130
304	40
305	10
317	10
